contingency/no_load/40pc/TNB_DUMA_VLN.Txt

SYMMETRICAL COMPONENT VOLTAGES BY BUS (for 3-phase buses)

Bus               Mag:   V1 (kV)    p.u.     V2 (kV)   %V2/V1    V0 (kV)    %V0/V1

ppu_duma_33kv        19.02     0.9983  9.266E-009  4.872E-008 1.239E-009 6.516E-009
ppu_duma_11kv        6.169     0.9714  3.227E-009  5.23E-008 1.231E-010 1.995E-009
rpplngi2             6.236      0.982  3.257E-009  5.223E-008 1.242E-010 1.992E-009
pdtjlnmasjid         6.287     0.9899  3.28E-009  5.217E-008 1.253E-010 1.993E-009
bella                 6.32     0.9952  3.295E-009  5.214E-008 1.261E-010 1.995E-009
pstpdgn              6.337     0.9978  3.303E-009  5.212E-008 1.265E-010 1.996E-009
pamdra               6.176     0.9725  3.23E-009  5.23E-008 1.232E-010 1.994E-009
duma4                6.199     0.9761  3.241E-009  5.227E-008 1.263E-010 2.038E-009
plsdra                6.25     0.9842  3.264E-009  5.222E-008 1.423E-010 2.277E-009
ssu_uptwres_ir1      6.259     0.9855  3.268E-009  5.222E-008 1.427E-010 2.28E-009
atria_1               6.26     0.9857  3.268E-009  5.22E-008 1.247E-010 1.992E-009
hawker               6.276     0.9882  3.275E-009  5.219E-008 1.399E-010 2.229E-009
prmte                 6.23      0.981  3.255E-009  5.225E-008 1.379E-010 2.213E-009
prmta                6.241     0.9826  3.26E-009  5.224E-008 1.384E-010 2.217E-009
pmontb               6.249     0.9839  3.264E-009  5.223E-008 1.416E-010 2.265E-009
duma7                6.194     0.9753  3.238E-009  5.227E-008 1.239E-010 2.001E-009
haus                 6.244     0.9832  3.26E-009  5.221E-008 1.551E-010 2.484E-009
duma6                6.379      1.004  3.321E-009  5.205E-008 3.576E-010 5.606E-009
duma13               6.502      1.024  3.375E-009  5.191E-008 5.873E-010 9.033E-009
ssu_duma5_im2        6.518      1.026  3.383E-009  5.189E-008 5.903E-010 9.057E-009
plngi_b              6.204     0.9768  3.242E-009  5.226E-008 1.236E-010 1.992E-009
plngi_d              6.221     0.9795  3.25E-009  5.225E-008 1.238E-010 1.991E-009
pdtlitrak            6.331     0.9969  3.302E-009  5.215E-008 1.268E-010 2.003E-009
duma12               6.397      1.007  3.332E-009  5.208E-008 1.287E-010 2.012E-009
tmngh4               6.459      1.017  3.36E-009  5.203E-008 1.496E-010 2.317E-009
ssu_tmegah3_ir1      6.483      1.021  3.372E-009  5.201E-008 1.618E-010 2.496E-009
tmngh2               6.494      1.023  3.377E-009   5.2E-008 1.676E-010 2.581E-009
sprk9                6.319      0.995  3.295E-009  5.214E-008 1.261E-010 1.996E-009
bomba                6.328     0.9963  3.299E-009  5.213E-008 1.274E-010 2.014E-009
sprk8                6.349     0.9996  3.308E-009  5.211E-008 1.322E-010 2.083E-009
ssu_uptwres_im2      6.195     0.9754  3.239E-009  5.228E-008 1.262E-010 2.037E-009
maybank              6.229     0.9808  3.254E-009  5.224E-008 1.272E-010 2.042E-009
duma8                6.235     0.9818  3.257E-009  5.223E-008 1.286E-010 2.062E-009
ssu_dsarcntr_ir1     6.187     0.9741  3.235E-009  5.228E-008 1.233E-010 1.993E-009
duma9                6.284     0.9895  3.279E-009  5.218E-008 1.253E-010 1.994E-009
duma1                6.331     0.9969   3.3E-009  5.212E-008 1.264E-010 1.997E-009
elite                6.348     0.9995  3.308E-009  5.211E-008 1.268E-010 1.998E-009
duma10               6.251     0.9842  3.264E-009  5.221E-008 1.244E-010 1.991E-009
balaipolis           6.252     0.9844  3.264E-009  5.221E-008 1.244E-010 1.991E-009
ppu_duma_vcb1            0          0          0          0         0         0
